Circuit: * D:\myprojects\2018\powersupply\power.asc

WARNING: Less than two connections to node NC_01.  This node is used by R10.
Early termination of direct N-R iteration.
Direct Newton iteration failed to find .op point.  (Use ".option noopiter" to skip.)
Starting Gmin stepping
Gmin = 10
vernier = 0.5
vernier = 0.25
vernier = 0.125
Gmin = 6.68666
vernier = 0.0625
vernier = 0.03125
vernier = 0.015625
vernier = 0.0078125
vernier = 0.00390625
Gmin = 6.84217
vernier = 0.00195313
vernier = 0.000976563
vernier = 0.000488281
Gmin = 0
Gmin = 0
Gmin stepping succeeded in finding the operating point.


Date: Sun Apr 14 11:40:00 2019
Total elapsed time: 0.705 seconds.

tnom = 27
temp = 27
method = trap
totiter = 2247
traniter = 0
tranpoints = 0
accept = 0
rejected = 0
matrix size = 104
fillins = 625
solver = Normal
Thread vector: 5.9/4.9[2] 0.0/0.0[0] 1.8/1.7[1] 0.7/1.8[1]  2592/500
Matrix Compiler1: 51.27 KB object code size  4.3/2.1/[1.2]
Matrix Compiler2: 19.45 KB object code size  1.3/1.5/[0.7]

