Circuit: * D:\myprojects\2018\powersupply\power01.asc

WARNING: Less than two connections to node NC_01.  This node is used by R10.
Early termination of direct N-R iteration.
Direct Newton iteration failed to find .op point.  (Use ".option noopiter" to skip.)
Starting Gmin stepping
Gmin = 10
vernier = 0.5
vernier = 0.25
vernier = 0.125
Gmin = 6.68666
vernier = 0.0625
vernier = 0.03125
vernier = 0.015625
vernier = 0.0078125
vernier = 0.00390625
Gmin = 6.84217
vernier = 0.00195313
vernier = 0.000976563
vernier = 0.000488281
Gmin = 0
Gmin = 0
Gmin stepping failed

Starting source stepping with srcstepmethod=0
Source Step = 3.0303%
Source Step = 33.3333%
Source Step = 63.6364%
Source Step = 93.9394%
Source stepping succeeded in finding the operating point.


Date: Tue Apr 30 18:41:19 2019
Total elapsed time: 1.906 seconds.

tnom = 27
temp = 27
method = modified trap
totiter = 3856
traniter = 2086
tranpoints = 1042
accept = 1042
rejected = 0
matrix size = 104
fillins = 673
solver = Normal
Thread vector: 18.3/14.7[2] 6.9/5.6[2] 9.6/7.9[2] 2.1/4.0[1]  2592/500
Matrix Compiler1: 73.03 KB object code size  26.2/14.3/[7.4]
Matrix Compiler2: 20.35 KB object code size  10.7/8.0/[2.8]

